<?xml version="1.0" encoding="UTF-8"?>

<!-- generated on 04/29/20 07:27:11 by Eclipse SUMO netconvert Version 1.3.1
<configuration xmlns:xsi="http://www.w3.org/2001/XMLSchema-instance" xsi:noNamespaceSchemaLocation="http://sumo.dlr.de/xsd/netconvertConfiguration.xsd">

    <input>
        <node-files value="grid.nod.xml"/>
        <edge-files value="grid.edg.xml"/>
        <connection-files value="grid.con.xml"/>
        <type-files value="grid.typ.xml"/>
    </input>

    <output>
        <output-file value="grid.net.xml"/>
    </output>

</configuration>
-->

<net version="1.3" junctionCornerDetail="5" limitTurnSpeed="5.50" xmlns:xsi="http://www.w3.org/2001/XMLSchema-instance" xsi:noNamespaceSchemaLocation="http://sumo.dlr.de/xsd/net_file.xsd">

    <location netOffset="600.00,600.00" convBoundary="0.00,0.00,1200.00,1200.00" origBoundary="-600.00,-600.00,600.00,600.00" projParameter="!"/>

    <type id="go_in_to_grid" priority="40" numLanes="1" speed="11.11"/>
    <type id="go_out_of_grid" priority="60" numLanes="1" speed="11.11"/>
    <type id="in_grid" priority="50" numLanes="1" speed="11.11"/>

    <edge id=":0_0" function="internal">
        <lane id=":0_0_0" index="0" speed="6.79" length="9.68" width="4.00" shape="290.00,916.00 289.63,913.38 288.50,911.50 286.63,910.38 284.00,910.00"/>
    </edge>
    <edge id=":0_1" function="internal">
        <lane id=":0_1_0" index="0" speed="11.11" length="32.00" width="4.00" shape="290.00,916.00 290.00,884.00"/>
        <lane id=":0_1_1" index="1" speed="11.11" length="32.00" width="4.00" shape="294.00,916.00 294.00,884.00"/>
    </edge>
    <edge id=":0_3" function="internal">
        <lane id=":0_3_0" index="0" speed="11.11" length="29.03" width="4.00" shape="298.00,916.00 299.13,908.13 302.50,902.50 308.13,899.13 316.00,898.00"/>
    </edge>
    <edge id=":0_4" function="internal">
        <lane id=":0_4_0" index="0" speed="6.79" length="9.68" width="4.00" shape="316.00,910.00 313.38,910.38 311.50,911.50 310.38,913.38 310.00,916.00"/>
    </edge>
    <edge id=":0_5" function="internal">
        <lane id=":0_5_0" index="0" speed="11.11" length="32.00" width="4.00" shape="316.00,910.00 284.00,910.00"/>
        <lane id=":0_5_1" index="1" speed="11.11" length="32.00" width="4.00" shape="316.00,906.00 284.00,906.00"/>
    </edge>
    <edge id=":0_7" function="internal">
        <lane id=":0_7_0" index="0" speed="11.11" length="29.03" width="4.00" shape="316.00,902.00 308.13,900.88 302.50,897.50 299.13,891.88 298.00,884.00"/>
    </edge>
    <edge id=":0_8" function="internal">
        <lane id=":0_8_0" index="0" speed="6.79" length="9.68" width="4.00" shape="310.00,884.00 310.38,886.63 311.50,888.50 313.38,889.63 316.00,890.00"/>
    </edge>
    <edge id=":0_9" function="internal">
        <lane id=":0_9_0" index="0" speed="11.11" length="32.00" width="4.00" shape="310.00,884.00 310.00,916.00"/>
        <lane id=":0_9_1" index="1" speed="11.11" length="32.00" width="4.00" shape="306.00,884.00 306.00,916.00"/>
    </edge>
    <edge id=":0_11" function="internal">
        <lane id=":0_11_0" index="0" speed="11.11" length="7.00" width="4.00" shape="302.00,884.00 301.01,890.93"/>
    </edge>
    <edge id=":0_16" function="internal">
        <lane id=":0_16_0" index="0" speed="11.11" length="22.03" width="4.00" shape="301.01,890.93 300.88,891.88 297.50,897.50 291.88,900.88 284.00,902.00"/>
    </edge>
    <edge id=":0_12" function="internal">
        <lane id=":0_12_0" index="0" speed="6.79" length="9.68" width="4.00" shape="284.00,890.00 286.63,889.63 288.50,888.50 289.63,886.63 290.00,884.00"/>
    </edge>
    <edge id=":0_13" function="internal">
        <lane id=":0_13_0" index="0" speed="11.11" length="32.00" width="4.00" shape="284.00,890.00 316.00,890.00"/>
        <lane id=":0_13_1" index="1" speed="11.11" length="32.00" width="4.00" shape="284.00,894.00 316.00,894.00"/>
    </edge>
    <edge id=":0_15" function="internal">
        <lane id=":0_15_0" index="0" speed="11.11" length="29.03" width="4.00" shape="284.00,898.00 291.88,899.13 297.50,902.50 300.88,908.13 302.00,916.00"/>
    </edge>
    <edge id=":1_0" function="internal">
        <lane id=":1_0_0" index="0" speed="6.79" length="9.68" width="4.00" shape="590.00,916.00 589.63,913.38 588.50,911.50 586.63,910.38 584.00,910.00"/>
    </edge>
    <edge id=":1_1" function="internal">
        <lane id=":1_1_0" index="0" speed="11.11" length="32.00" width="4.00" shape="590.00,916.00 590.00,884.00"/>
        <lane id=":1_1_1" index="1" speed="11.11" length="32.00" width="4.00" shape="594.00,916.00 594.00,884.00"/>
    </edge>
    <edge id=":1_3" function="internal">
        <lane id=":1_3_0" index="0" speed="11.11" length="16.26" width="4.00" shape="598.00,916.00 599.13,908.13 602.50,902.50 604.00,901.60"/>
    </edge>
    <edge id=":1_16" function="internal">
        <lane id=":1_16_0" index="0" speed="11.11" length="12.77" width="4.00" shape="604.00,901.60 608.13,899.13 616.00,898.00"/>
    </edge>
    <edge id=":1_4" function="internal">
        <lane id=":1_4_0" index="0" speed="6.79" length="9.68" width="4.00" shape="616.00,910.00 613.38,910.38 611.50,911.50 610.38,913.38 610.00,916.00"/>
    </edge>
    <edge id=":1_5" function="internal">
        <lane id=":1_5_0" index="0" speed="11.11" length="32.00" width="4.00" shape="616.00,910.00 584.00,910.00"/>
        <lane id=":1_5_1" index="1" speed="11.11" length="32.00" width="4.00" shape="616.00,906.00 584.00,906.00"/>
    </edge>
    <edge id=":1_7" function="internal">
        <lane id=":1_7_0" index="0" speed="11.11" length="16.26" width="4.00" shape="616.00,902.00 608.13,900.88 602.50,897.50 601.60,896.00"/>
    </edge>
    <edge id=":1_17" function="internal">
        <lane id=":1_17_0" index="0" speed="11.11" length="12.77" width="4.00" shape="601.60,896.00 599.13,891.88 598.00,884.00"/>
    </edge>
    <edge id=":1_8" function="internal">
        <lane id=":1_8_0" index="0" speed="6.79" length="9.68" width="4.00" shape="610.00,884.00 610.38,886.63 611.50,888.50 613.38,889.63 616.00,890.00"/>
    </edge>
    <edge id=":1_9" function="internal">
        <lane id=":1_9_0" index="0" speed="11.11" length="32.00" width="4.00" shape="610.00,884.00 610.00,916.00"/>
        <lane id=":1_9_1" index="1" speed="11.11" length="32.00" width="4.00" shape="606.00,884.00 606.00,916.00"/>
    </edge>
    <edge id=":1_11" function="internal">
        <lane id=":1_11_0" index="0" speed="11.11" length="16.26" width="4.00" shape="602.00,884.00 600.88,891.88 597.50,897.50 596.00,898.40"/>
    </edge>
    <edge id=":1_18" function="internal">
        <lane id=":1_18_0" index="0" speed="11.11" length="12.77" width="4.00" shape="596.00,898.40 591.88,900.88 584.00,902.00"/>
    </edge>
    <edge id=":1_12" function="internal">
        <lane id=":1_12_0" index="0" speed="6.79" length="9.68" width="4.00" shape="584.00,890.00 586.63,889.63 588.50,888.50 589.63,886.63 590.00,884.00"/>
    </edge>
    <edge id=":1_13" function="internal">
        <lane id=":1_13_0" index="0" speed="11.11" length="32.00" width="4.00" shape="584.00,890.00 616.00,890.00"/>
        <lane id=":1_13_1" index="1" speed="11.11" length="32.00" width="4.00" shape="584.00,894.00 616.00,894.00"/>
    </edge>
    <edge id=":1_15" function="internal">
        <lane id=":1_15_0" index="0" speed="11.11" length="16.26" width="4.00" shape="584.00,898.00 591.88,899.13 597.50,902.50 598.40,904.00"/>
    </edge>
    <edge id=":1_19" function="internal">
        <lane id=":1_19_0" index="0" speed="11.11" length="12.77" width="4.00" shape="598.40,904.00 600.88,908.13 602.00,916.00"/>
    </edge>
    <edge id=":2_0" function="internal">
        <lane id=":2_0_0" index="0" speed="6.79" length="9.68" width="4.00" shape="890.00,916.00 889.63,913.38 888.50,911.50 886.63,910.38 884.00,910.00"/>
    </edge>
    <edge id=":2_1" function="internal">
        <lane id=":2_1_0" index="0" speed="11.11" length="32.00" width="4.00" shape="890.00,916.00 890.00,884.00"/>
        <lane id=":2_1_1" index="1" speed="11.11" length="32.00" width="4.00" shape="894.00,916.00 894.00,884.00"/>
    </edge>
    <edge id=":2_3" function="internal">
        <lane id=":2_3_0" index="0" speed="11.11" length="29.03" width="4.00" shape="898.00,916.00 899.13,908.13 902.50,902.50 908.13,899.13 916.00,898.00"/>
    </edge>
    <edge id=":2_4" function="internal">
        <lane id=":2_4_0" index="0" speed="6.79" length="9.68" width="4.00" shape="916.00,910.00 913.38,910.38 911.50,911.50 910.38,913.38 910.00,916.00"/>
    </edge>
    <edge id=":2_5" function="internal">
        <lane id=":2_5_0" index="0" speed="11.11" length="32.00" width="4.00" shape="916.00,910.00 884.00,910.00"/>
        <lane id=":2_5_1" index="1" speed="11.11" length="32.00" width="4.00" shape="916.00,906.00 884.00,906.00"/>
    </edge>
    <edge id=":2_7" function="internal">
        <lane id=":2_7_0" index="0" speed="11.11" length="29.03" width="4.00" shape="916.00,902.00 908.13,900.88 902.50,897.50 899.13,891.88 898.00,884.00"/>
    </edge>
    <edge id=":2_8" function="internal">
        <lane id=":2_8_0" index="0" speed="6.79" length="9.68" width="4.00" shape="910.00,884.00 910.38,886.63 911.50,888.50 913.38,889.63 916.00,890.00"/>
    </edge>
    <edge id=":2_9" function="internal">
        <lane id=":2_9_0" index="0" speed="11.11" length="32.00" width="4.00" shape="910.00,884.00 910.00,916.00"/>
        <lane id=":2_9_1" index="1" speed="11.11" length="32.00" width="4.00" shape="906.00,884.00 906.00,916.00"/>
    </edge>
    <edge id=":2_11" function="internal">
        <lane id=":2_11_0" index="0" speed="11.11" length="29.03" width="4.00" shape="902.00,884.00 900.88,891.88 897.50,897.50 891.88,900.88 884.00,902.00"/>
    </edge>
    <edge id=":2_12" function="internal">
        <lane id=":2_12_0" index="0" speed="6.79" length="9.68" width="4.00" shape="884.00,890.00 886.63,889.63 888.50,888.50 889.63,886.63 890.00,884.00"/>
    </edge>
    <edge id=":2_13" function="internal">
        <lane id=":2_13_0" index="0" speed="11.11" length="32.00" width="4.00" shape="884.00,890.00 916.00,890.00"/>
        <lane id=":2_13_1" index="1" speed="11.11" length="32.00" width="4.00" shape="884.00,894.00 916.00,894.00"/>
    </edge>
    <edge id=":2_15" function="internal">
        <lane id=":2_15_0" index="0" speed="11.11" length="7.00" width="4.00" shape="884.00,898.00 890.93,898.99"/>
    </edge>
    <edge id=":2_16" function="internal">
        <lane id=":2_16_0" index="0" speed="11.11" length="22.03" width="4.00" shape="890.93,898.99 891.88,899.13 897.50,902.50 900.88,908.13 902.00,916.00"/>
    </edge>
    <edge id=":3_0" function="internal">
        <lane id=":3_0_0" index="0" speed="6.79" length="9.68" width="4.00" shape="290.00,616.00 289.63,613.38 288.50,611.50 286.63,610.38 284.00,610.00"/>
    </edge>
    <edge id=":3_1" function="internal">
        <lane id=":3_1_0" index="0" speed="11.11" length="32.00" width="4.00" shape="290.00,616.00 290.00,584.00"/>
        <lane id=":3_1_1" index="1" speed="11.11" length="32.00" width="4.00" shape="294.00,616.00 294.00,584.00"/>
    </edge>
    <edge id=":3_3" function="internal">
        <lane id=":3_3_0" index="0" speed="11.11" length="16.26" width="4.00" shape="298.00,616.00 299.13,608.13 302.50,602.50 304.00,601.60"/>
    </edge>
    <edge id=":3_16" function="internal">
        <lane id=":3_16_0" index="0" speed="11.11" length="12.77" width="4.00" shape="304.00,601.60 308.13,599.13 316.00,598.00"/>
    </edge>
    <edge id=":3_4" function="internal">
        <lane id=":3_4_0" index="0" speed="6.79" length="9.68" width="4.00" shape="316.00,610.00 313.38,610.38 311.50,611.50 310.38,613.38 310.00,616.00"/>
    </edge>
    <edge id=":3_5" function="internal">
        <lane id=":3_5_0" index="0" speed="11.11" length="32.00" width="4.00" shape="316.00,610.00 284.00,610.00"/>
        <lane id=":3_5_1" index="1" speed="11.11" length="32.00" width="4.00" shape="316.00,606.00 284.00,606.00"/>
    </edge>
    <edge id=":3_7" function="internal">
        <lane id=":3_7_0" index="0" speed="11.11" length="16.26" width="4.00" shape="316.00,602.00 308.13,600.88 302.50,597.50 301.60,596.00"/>
    </edge>
    <edge id=":3_17" function="internal">
        <lane id=":3_17_0" index="0" speed="11.11" length="12.77" width="4.00" shape="301.60,596.00 299.13,591.88 298.00,584.00"/>
    </edge>
    <edge id=":3_8" function="internal">
        <lane id=":3_8_0" index="0" speed="6.79" length="9.68" width="4.00" shape="310.00,584.00 310.38,586.63 311.50,588.50 313.38,589.63 316.00,590.00"/>
    </edge>
    <edge id=":3_9" function="internal">
        <lane id=":3_9_0" index="0" speed="11.11" length="32.00" width="4.00" shape="310.00,584.00 310.00,616.00"/>
        <lane id=":3_9_1" index="1" speed="11.11" length="32.00" width="4.00" shape="306.00,584.00 306.00,616.00"/>
    </edge>
    <edge id=":3_11" function="internal">
        <lane id=":3_11_0" index="0" speed="11.11" length="16.26" width="4.00" shape="302.00,584.00 300.88,591.88 297.50,597.50 296.00,598.40"/>
    </edge>
    <edge id=":3_18" function="internal">
        <lane id=":3_18_0" index="0" speed="11.11" length="12.77" width="4.00" shape="296.00,598.40 291.88,600.88 284.00,602.00"/>
    </edge>
    <edge id=":3_12" function="internal">
        <lane id=":3_12_0" index="0" speed="6.79" length="9.68" width="4.00" shape="284.00,590.00 286.63,589.63 288.50,588.50 289.63,586.63 290.00,584.00"/>
    </edge>
    <edge id=":3_13" function="internal">
        <lane id=":3_13_0" index="0" speed="11.11" length="32.00" width="4.00" shape="284.00,590.00 316.00,590.00"/>
        <lane id=":3_13_1" index="1" speed="11.11" length="32.00" width="4.00" shape="284.00,594.00 316.00,594.00"/>
    </edge>
    <edge id=":3_15" function="internal">
        <lane id=":3_15_0" index="0" speed="11.11" length="16.26" width="4.00" shape="284.00,598.00 291.88,599.13 297.50,602.50 298.40,604.00"/>
    </edge>
    <edge id=":3_19" function="internal">
        <lane id=":3_19_0" index="0" speed="11.11" length="12.77" width="4.00" shape="298.40,604.00 300.88,608.13 302.00,616.00"/>
    </edge>
    <edge id=":4_0" function="internal">
        <lane id=":4_0_0" index="0" speed="6.79" length="9.68" width="4.00" shape="590.00,616.00 589.63,613.38 588.50,611.50 586.63,610.38 584.00,610.00"/>
    </edge>
    <edge id=":4_1" function="internal">
        <lane id=":4_1_0" index="0" speed="11.11" length="32.00" width="4.00" shape="590.00,616.00 590.00,584.00"/>
        <lane id=":4_1_1" index="1" speed="11.11" length="32.00" width="4.00" shape="594.00,616.00 594.00,584.00"/>
    </edge>
    <edge id=":4_3" function="internal">
        <lane id=":4_3_0" index="0" speed="11.11" length="16.26" width="4.00" shape="598.00,616.00 599.13,608.13 602.50,602.50 604.00,601.60"/>
    </edge>
    <edge id=":4_16" function="internal">
        <lane id=":4_16_0" index="0" speed="11.11" length="12.77" width="4.00" shape="604.00,601.60 608.13,599.13 616.00,598.00"/>
    </edge>
    <edge id=":4_4" function="internal">
        <lane id=":4_4_0" index="0" speed="6.79" length="9.68" width="4.00" shape="616.00,610.00 613.38,610.38 611.50,611.50 610.38,613.38 610.00,616.00"/>
    </edge>
    <edge id=":4_5" function="internal">
        <lane id=":4_5_0" index="0" speed="11.11" length="32.00" width="4.00" shape="616.00,610.00 584.00,610.00"/>
        <lane id=":4_5_1" index="1" speed="11.11" length="32.00" width="4.00" shape="616.00,606.00 584.00,606.00"/>
    </edge>
    <edge id=":4_7" function="internal">
        <lane id=":4_7_0" index="0" speed="11.11" length="16.26" width="4.00" shape="616.00,602.00 608.13,600.88 602.50,597.50 601.60,596.00"/>
    </edge>
    <edge id=":4_17" function="internal">
        <lane id=":4_17_0" index="0" speed="11.11" length="12.77" width="4.00" shape="601.60,596.00 599.13,591.88 598.00,584.00"/>
    </edge>
    <edge id=":4_8" function="internal">
        <lane id=":4_8_0" index="0" speed="6.79" length="9.68" width="4.00" shape="610.00,584.00 610.38,586.63 611.50,588.50 613.38,589.63 616.00,590.00"/>
    </edge>
    <edge id=":4_9" function="internal">
        <lane id=":4_9_0" index="0" speed="11.11" length="32.00" width="4.00" shape="610.00,584.00 610.00,616.00"/>
        <lane id=":4_9_1" index="1" speed="11.11" length="32.00" width="4.00" shape="606.00,584.00 606.00,616.00"/>
    </edge>
    <edge id=":4_11" function="internal">
        <lane id=":4_11_0" index="0" speed="11.11" length="16.26" width="4.00" shape="602.00,584.00 600.88,591.88 597.50,597.50 596.00,598.40"/>
    </edge>
    <edge id=":4_18" function="internal">
        <lane id=":4_18_0" index="0" speed="11.11" length="12.77" width="4.00" shape="596.00,598.40 591.88,600.88 584.00,602.00"/>
    </edge>
    <edge id=":4_12" function="internal">
        <lane id=":4_12_0" index="0" speed="6.79" length="9.68" width="4.00" shape="584.00,590.00 586.63,589.63 588.50,588.50 589.63,586.63 590.00,584.00"/>
    </edge>
    <edge id=":4_13" function="internal">
        <lane id=":4_13_0" index="0" speed="11.11" length="32.00" width="4.00" shape="584.00,590.00 616.00,590.00"/>
        <lane id=":4_13_1" index="1" speed="11.11" length="32.00" width="4.00" shape="584.00,594.00 616.00,594.00"/>
    </edge>
    <edge id=":4_15" function="internal">
        <lane id=":4_15_0" index="0" speed="11.11" length="16.26" width="4.00" shape="584.00,598.00 591.88,599.13 597.50,602.50 598.40,604.00"/>
    </edge>
    <edge id=":4_19" function="internal">
        <lane id=":4_19_0" index="0" speed="11.11" length="12.77" width="4.00" shape="598.40,604.00 600.88,608.13 602.00,616.00"/>
    </edge>
    <edge id=":5_0" function="internal">
        <lane id=":5_0_0" index="0" speed="6.79" length="9.68" width="4.00" shape="890.00,616.00 889.63,613.38 888.50,611.50 886.63,610.38 884.00,610.00"/>
    </edge>
    <edge id=":5_1" function="internal">
        <lane id=":5_1_0" index="0" speed="11.11" length="32.00" width="4.00" shape="890.00,616.00 890.00,584.00"/>
        <lane id=":5_1_1" index="1" speed="11.11" length="32.00" width="4.00" shape="894.00,616.00 894.00,584.00"/>
    </edge>
    <edge id=":5_3" function="internal">
        <lane id=":5_3_0" index="0" speed="11.11" length="16.26" width="4.00" shape="898.00,616.00 899.13,608.13 902.50,602.50 904.00,601.60"/>
    </edge>
    <edge id=":5_16" function="internal">
        <lane id=":5_16_0" index="0" speed="11.11" length="12.77" width="4.00" shape="904.00,601.60 908.13,599.13 916.00,598.00"/>
    </edge>
    <edge id=":5_4" function="internal">
        <lane id=":5_4_0" index="0" speed="6.79" length="9.68" width="4.00" shape="916.00,610.00 913.38,610.38 911.50,611.50 910.38,613.38 910.00,616.00"/>
    </edge>
    <edge id=":5_5" function="internal">
        <lane id=":5_5_0" index="0" speed="11.11" length="32.00" width="4.00" shape="916.00,610.00 884.00,610.00"/>
        <lane id=":5_5_1" index="1" speed="11.11" length="32.00" width="4.00" shape="916.00,606.00 884.00,606.00"/>
    </edge>
    <edge id=":5_7" function="internal">
        <lane id=":5_7_0" index="0" speed="11.11" length="16.26" width="4.00" shape="916.00,602.00 908.13,600.88 902.50,597.50 901.60,596.00"/>
    </edge>
    <edge id=":5_17" function="internal">
        <lane id=":5_17_0" index="0" speed="11.11" length="12.77" width="4.00" shape="901.60,596.00 899.13,591.88 898.00,584.00"/>
    </edge>
    <edge id=":5_8" function="internal">
        <lane id=":5_8_0" index="0" speed="6.79" length="9.68" width="4.00" shape="910.00,584.00 910.38,586.63 911.50,588.50 913.38,589.63 916.00,590.00"/>
    </edge>
    <edge id=":5_9" function="internal">
        <lane id=":5_9_0" index="0" speed="11.11" length="32.00" width="4.00" shape="910.00,584.00 910.00,616.00"/>
        <lane id=":5_9_1" index="1" speed="11.11" length="32.00" width="4.00" shape="906.00,584.00 906.00,616.00"/>
    </edge>
    <edge id=":5_11" function="internal">
        <lane id=":5_11_0" index="0" speed="11.11" length="16.26" width="4.00" shape="902.00,584.00 900.88,591.88 897.50,597.50 896.00,598.40"/>
    </edge>
    <edge id=":5_18" function="internal">
        <lane id=":5_18_0" index="0" speed="11.11" length="12.77" width="4.00" shape="896.00,598.40 891.88,600.88 884.00,602.00"/>
    </edge>
    <edge id=":5_12" function="internal">
        <lane id=":5_12_0" index="0" speed="6.79" length="9.68" width="4.00" shape="884.00,590.00 886.63,589.63 888.50,588.50 889.63,586.63 890.00,584.00"/>
    </edge>
    <edge id=":5_13" function="internal">
        <lane id=":5_13_0" index="0" speed="11.11" length="32.00" width="4.00" shape="884.00,590.00 916.00,590.00"/>
        <lane id=":5_13_1" index="1" speed="11.11" length="32.00" width="4.00" shape="884.00,594.00 916.00,594.00"/>
    </edge>
    <edge id=":5_15" function="internal">
        <lane id=":5_15_0" index="0" speed="11.11" length="16.26" width="4.00" shape="884.00,598.00 891.88,599.13 897.50,602.50 898.40,604.00"/>
    </edge>
    <edge id=":5_19" function="internal">
        <lane id=":5_19_0" index="0" speed="11.11" length="12.77" width="4.00" shape="898.40,604.00 900.88,608.13 902.00,616.00"/>
    </edge>
    <edge id=":6_0" function="internal">
        <lane id=":6_0_0" index="0" speed="6.79" length="9.68" width="4.00" shape="290.00,316.00 289.63,313.38 288.50,311.50 286.63,310.38 284.00,310.00"/>
    </edge>
    <edge id=":6_1" function="internal">
        <lane id=":6_1_0" index="0" speed="11.11" length="32.00" width="4.00" shape="290.00,316.00 290.00,284.00"/>
        <lane id=":6_1_1" index="1" speed="11.11" length="32.00" width="4.00" shape="294.00,316.00 294.00,284.00"/>
    </edge>
    <edge id=":6_3" function="internal">
        <lane id=":6_3_0" index="0" speed="11.11" length="29.03" width="4.00" shape="298.00,316.00 299.13,308.13 302.50,302.50 308.13,299.13 316.00,298.00"/>
    </edge>
    <edge id=":6_4" function="internal">
        <lane id=":6_4_0" index="0" speed="6.79" length="9.68" width="4.00" shape="316.00,310.00 313.38,310.38 311.50,311.50 310.38,313.38 310.00,316.00"/>
    </edge>
    <edge id=":6_5" function="internal">
        <lane id=":6_5_0" index="0" speed="11.11" length="32.00" width="4.00" shape="316.00,310.00 284.00,310.00"/>
        <lane id=":6_5_1" index="1" speed="11.11" length="32.00" width="4.00" shape="316.00,306.00 284.00,306.00"/>
    </edge>
    <edge id=":6_7" function="internal">
        <lane id=":6_7_0" index="0" speed="11.11" length="7.00" width="4.00" shape="316.00,302.00 309.07,301.01"/>
    </edge>
    <edge id=":6_16" function="internal">
        <lane id=":6_16_0" index="0" speed="11.11" length="22.03" width="4.00" shape="309.07,301.01 308.13,300.88 302.50,297.50 299.13,291.88 298.00,284.00"/>
    </edge>
    <edge id=":6_8" function="internal">
        <lane id=":6_8_0" index="0" speed="6.79" length="9.68" width="4.00" shape="310.00,284.00 310.38,286.63 311.50,288.50 313.38,289.63 316.00,290.00"/>
    </edge>
    <edge id=":6_9" function="internal">
        <lane id=":6_9_0" index="0" speed="11.11" length="32.00" width="4.00" shape="310.00,284.00 310.00,316.00"/>
        <lane id=":6_9_1" index="1" speed="11.11" length="32.00" width="4.00" shape="306.00,284.00 306.00,316.00"/>
    </edge>
    <edge id=":6_11" function="internal">
        <lane id=":6_11_0" index="0" speed="11.11" length="29.03" width="4.00" shape="302.00,284.00 300.88,291.88 297.50,297.50 291.88,300.88 284.00,302.00"/>
    </edge>
    <edge id=":6_12" function="internal">
        <lane id=":6_12_0" index="0" speed="6.79" length="9.68" width="4.00" shape="284.00,290.00 286.63,289.63 288.50,288.50 289.63,286.63 290.00,284.00"/>
    </edge>
    <edge id=":6_13" function="internal">
        <lane id=":6_13_0" index="0" speed="11.11" length="32.00" width="4.00" shape="284.00,290.00 316.00,290.00"/>
        <lane id=":6_13_1" index="1" speed="11.11" length="32.00" width="4.00" shape="284.00,294.00 316.00,294.00"/>
    </edge>
    <edge id=":6_15" function="internal">
        <lane id=":6_15_0" index="0" speed="11.11" length="29.03" width="4.00" shape="284.00,298.00 291.88,299.13 297.50,302.50 300.88,308.13 302.00,316.00"/>
    </edge>
    <edge id=":7_0" function="internal">
        <lane id=":7_0_0" index="0" speed="6.79" length="9.68" width="4.00" shape="590.00,316.00 589.63,313.38 588.50,311.50 586.63,310.38 584.00,310.00"/>
    </edge>
    <edge id=":7_1" function="internal">
        <lane id=":7_1_0" index="0" speed="11.11" length="32.00" width="4.00" shape="590.00,316.00 590.00,284.00"/>
        <lane id=":7_1_1" index="1" speed="11.11" length="32.00" width="4.00" shape="594.00,316.00 594.00,284.00"/>
    </edge>
    <edge id=":7_3" function="internal">
        <lane id=":7_3_0" index="0" speed="11.11" length="16.26" width="4.00" shape="598.00,316.00 599.13,308.13 602.50,302.50 604.00,301.60"/>
    </edge>
    <edge id=":7_16" function="internal">
        <lane id=":7_16_0" index="0" speed="11.11" length="12.77" width="4.00" shape="604.00,301.60 608.13,299.13 616.00,298.00"/>
    </edge>
    <edge id=":7_4" function="internal">
        <lane id=":7_4_0" index="0" speed="6.79" length="9.68" width="4.00" shape="616.00,310.00 613.38,310.38 611.50,311.50 610.38,313.38 610.00,316.00"/>
    </edge>
    <edge id=":7_5" function="internal">
        <lane id=":7_5_0" index="0" speed="11.11" length="32.00" width="4.00" shape="616.00,310.00 584.00,310.00"/>
        <lane id=":7_5_1" index="1" speed="11.11" length="32.00" width="4.00" shape="616.00,306.00 584.00,306.00"/>
    </edge>
    <edge id=":7_7" function="internal">
        <lane id=":7_7_0" index="0" speed="11.11" length="16.26" width="4.00" shape="616.00,302.00 608.13,300.88 602.50,297.50 601.60,296.00"/>
    </edge>
    <edge id=":7_17" function="internal">
        <lane id=":7_17_0" index="0" speed="11.11" length="12.77" width="4.00" shape="601.60,296.00 599.13,291.88 598.00,284.00"/>
    </edge>
    <edge id=":7_8" function="internal">
        <lane id=":7_8_0" index="0" speed="6.79" length="9.68" width="4.00" shape="610.00,284.00 610.38,286.63 611.50,288.50 613.38,289.63 616.00,290.00"/>
    </edge>
    <edge id=":7_9" function="internal">
        <lane id=":7_9_0" index="0" speed="11.11" length="32.00" width="4.00" shape="610.00,284.00 610.00,316.00"/>
        <lane id=":7_9_1" index="1" speed="11.11" length="32.00" width="4.00" shape="606.00,284.00 606.00,316.00"/>
    </edge>
    <edge id=":7_11" function="internal">
        <lane id=":7_11_0" index="0" speed="11.11" length="16.26" width="4.00" shape="602.00,284.00 600.88,291.88 597.50,297.50 596.00,298.40"/>
    </edge>
    <edge id=":7_18" function="internal">
        <lane id=":7_18_0" index="0" speed="11.11" length="12.77" width="4.00" shape="596.00,298.40 591.88,300.88 584.00,302.00"/>
    </edge>
    <edge id=":7_12" function="internal">
        <lane id=":7_12_0" index="0" speed="6.79" length="9.68" width="4.00" shape="584.00,290.00 586.63,289.63 588.50,288.50 589.63,286.63 590.00,284.00"/>
    </edge>
    <edge id=":7_13" function="internal">
        <lane id=":7_13_0" index="0" speed="11.11" length="32.00" width="4.00" shape="584.00,290.00 616.00,290.00"/>
        <lane id=":7_13_1" index="1" speed="11.11" length="32.00" width="4.00" shape="584.00,294.00 616.00,294.00"/>
    </edge>
    <edge id=":7_15" function="internal">
        <lane id=":7_15_0" index="0" speed="11.11" length="16.26" width="4.00" shape="584.00,298.00 591.88,299.13 597.50,302.50 598.40,304.00"/>
    </edge>
    <edge id=":7_19" function="internal">
        <lane id=":7_19_0" index="0" speed="11.11" length="12.77" width="4.00" shape="598.40,304.00 600.88,308.13 602.00,316.00"/>
    </edge>
    <edge id=":8_0" function="internal">
        <lane id=":8_0_0" index="0" speed="6.79" length="9.68" width="4.00" shape="890.00,316.00 889.63,313.38 888.50,311.50 886.63,310.38 884.00,310.00"/>
    </edge>
    <edge id=":8_1" function="internal">
        <lane id=":8_1_0" index="0" speed="11.11" length="32.00" width="4.00" shape="890.00,316.00 890.00,284.00"/>
        <lane id=":8_1_1" index="1" speed="11.11" length="32.00" width="4.00" shape="894.00,316.00 894.00,284.00"/>
    </edge>
    <edge id=":8_3" function="internal">
        <lane id=":8_3_0" index="0" speed="11.11" length="7.00" width="4.00" shape="898.00,316.00 898.99,309.07"/>
    </edge>
    <edge id=":8_16" function="internal">
        <lane id=":8_16_0" index="0" speed="11.11" length="22.03" width="4.00" shape="898.99,309.07 899.13,308.13 902.50,302.50 908.13,299.13 916.00,298.00"/>
    </edge>
    <edge id=":8_4" function="internal">
        <lane id=":8_4_0" index="0" speed="6.79" length="9.68" width="4.00" shape="916.00,310.00 913.38,310.38 911.50,311.50 910.38,313.38 910.00,316.00"/>
    </edge>
    <edge id=":8_5" function="internal">
        <lane id=":8_5_0" index="0" speed="11.11" length="32.00" width="4.00" shape="916.00,310.00 884.00,310.00"/>
        <lane id=":8_5_1" index="1" speed="11.11" length="32.00" width="4.00" shape="916.00,306.00 884.00,306.00"/>
    </edge>
    <edge id=":8_7" function="internal">
        <lane id=":8_7_0" index="0" speed="11.11" length="29.03" width="4.00" shape="916.00,302.00 908.13,300.88 902.50,297.50 899.13,291.88 898.00,284.00"/>
    </edge>
    <edge id=":8_8" function="internal">
        <lane id=":8_8_0" index="0" speed="6.79" length="9.68" width="4.00" shape="910.00,284.00 910.38,286.63 911.50,288.50 913.38,289.63 916.00,290.00"/>
    </edge>
    <edge id=":8_9" function="internal">
        <lane id=":8_9_0" index="0" speed="11.11" length="32.00" width="4.00" shape="910.00,284.00 910.00,316.00"/>
        <lane id=":8_9_1" index="1" speed="11.11" length="32.00" width="4.00" shape="906.00,284.00 906.00,316.00"/>
    </edge>
    <edge id=":8_11" function="internal">
        <lane id=":8_11_0" index="0" speed="11.11" length="29.03" width="4.00" shape="902.00,284.00 900.88,291.88 897.50,297.50 891.88,300.88 884.00,302.00"/>
    </edge>