<connections>
    <connection from="edge-0-1" to="edge-1-4" fromLane="0" toLane="0" via=":1_18_0" tl="1" linkIndex="18" dir="r" state="o"/>
    <connection from="edge-0-1" to="edge-1-2" fromLane="0" toLane="0" via=":1_19_0" tl="1" linkIndex="19" dir="s" state="o"/>
    <connection from="edge-0-1" to="edge-1-2" fromLane="1" toLane="1" via=":1_19_1" tl="1" linkIndex="20" dir="s" state="o"/>
    <!--<connection from="edge-0-1" to="edge-1-2" fromLane="2" toLane="2" via=":1_19_2" tl="1" linkIndex="21" dir="s" state="o"/>-->
    <connection from="edge-0-1" to="edge-1-top1" fromLane="2" toLane="2" via=":1_22_0" tl="1" linkIndex="22" dir="l" state="o"/>
    <!--<connection from="edge-0-1" to="edge-1-0" fromLane="2" toLane="2" via=":1_23_0" tl="1" linkIndex="23" dir="t" state="o"/>-->
    <connection from="edge-0-3" to="edge-3-left1" fromLane="0" toLane="0" via=":3_0_0" tl="3" linkIndex="0" dir="r" state="o"/>
    <connection from="edge-0-3" to="edge-3-6" fromLane="0" toLane="0" via=":3_1_0" tl="3" linkIndex="1" dir="s" state="o"/>
    <connection from="edge-0-3" to="edge-3-6" fromLane="1" toLane="1" via=":3_1_1" tl="3" linkIndex="2" dir="s" state="o"/>
    <!--<connection from="edge-0-3" to="edge-3-6" fromLane="2" toLane="2" via=":3_1_2" tl="3" linkIndex="3" dir="s" state="o"/>-->
    <connection from="edge-0-3" to="edge-3-4" fromLane="2" toLane="2" via=":3_4_0" tl="3" linkIndex="4" dir="l" state="o"/>
    <!--<connection from="edge-0-3" to="edge-3-0" fromLane="2" toLane="2" via=":3_5_0" tl="3" linkIndex="5" dir="t" state="o"/>-->
    <!--<connection from="edge-0-left0" to="edge-left0-0" fromLane="2" toLane="2" via=":left0_0_0" dir="t" state="M"/>-->
    <!--<connection from="edge-0-top0" to="edge-top0-0" fromLane="2" toLane="2" via=":top0_0_0" dir="t" state="M"/>-->
    <connection from="edge-1-0" to="edge-0-top0" fromLane="0" toLane="0" via=":0_6_0" tl="0" linkIndex="6" dir="r" state="O"/>
    <connection from="edge-1-0" to="edge-0-left0" fromLane="0" toLane="0" via=":0_7_0" tl="0" linkIndex="7" dir="s" state="o"/>
    <connection from="edge-1-0" to="edge-0-left0" fromLane="1" toLane="1" via=":0_7_1" tl="0" linkIndex="8" dir="s" state="o"/>
    <!--<connection from="edge-1-0" to="edge-0-left0" fromLane="2" toLane="2" via=":0_7_2" tl="0" linkIndex="9" dir="s" state="o"/>-->
    <connection from="edge-1-0" to="edge-0-3" fromLane="2" toLane="2" via=":0_10_0" tl="0" linkIndex="10" dir="l" state="o"/>
    <!--<connection from="edge-1-0" to="edge-0-1" fromLane="2" toLane="2" via=":0_11_0" tl="0" linkIndex="11" dir="t" state="o"/>-->
    <connection from="edge-1-2" to="edge-2-5" fromLane="0" toLane="0" via=":2_18_0" tl="2" linkIndex="18" dir="r" state="o"/>
    <connection from="edge-1-2" to="edge-2-right0" fromLane="0" toLane="0" via=":2_19_0" tl="2" linkIndex="19" dir="s" state="o"/>
    <connection from="edge-1-2" to="edge-2-right0" fromLane="1" toLane="1" via=":2_19_1" tl="2" linkIndex="20" dir="s" state="o"/>
    <!--<connection from="edge-1-2" to="edge-2-right0" fromLane="2" toLane="2" via=":2_19_2" tl="2" linkIndex="21" dir="s" state="o"/>-->
    <connection from="edge-1-2" to="edge-2-top2" fromLane="2" toLane="2" via=":2_22_0" tl="2" linkIndex="22" dir="l" state="o"/>
    <!--<connection from="edge-1-2" to="edge-2-1" fromLane="2" toLane="2" via=":2_23_0" tl="2" linkIndex="23" dir="t" state="o"/>-->
    <connection from="edge-1-4" to="edge-4-3" fromLane="0" toLane="0" via=":4_0_0" tl="4" linkIndex="0" dir="r" state="O"/>
    <connection from="edge-1-4" to="edge-4-7" fromLane="0" toLane="0" via=":4_1_0" tl="4" linkIndex="1" dir="s" state="O"/>
    <connection from="edge-1-4" to="edge-4-7" fromLane="1" toLane="1" via=":4_1_1" tl="4" linkIndex="2" dir="s" state="O"/>
    <!--<connection from="edge-1-4" to="edge-4-7" fromLane="2" toLane="2" via=":4_1_2" tl="4" linkIndex="3" dir="s" state="O"/>-->
    <connection from="edge-1-4" to="edge-4-5" fromLane="2" toLane="2" via=":4_4_0" tl="4" linkIndex="4" dir="l" state="o"/>
    <!--<connection from="edge-1-4" to="edge-4-1" fromLane="2" toLane="2" via=":4_5_0" tl="4" linkIndex="5" dir="t" state="o"/>-->
    <!--<connection from="edge-1-top1" to="edge-top1-1" fromLane="2" toLane="2" via=":top1_0_0" dir="t" state="M"/>-->
    <connection from="edge-2-1" to="edge-1-top1" fromLane="0" toLane="0" via=":1_6_0" tl="1" linkIndex="6" dir="r" state="o"/>
    <connection from="edge-2-1" to="edge-1-0" fromLane="0" toLane="0" via=":1_7_0" tl="1" linkIndex="7" dir="s" state="o"/>
    <connection from="edge-2-1" to="edge-1-0" fromLane="1" toLane="1" via=":1_7_1" tl="1" linkIndex="8" dir="s" state="o"/>
    <!--<connection from="edge-2-1" to="edge-1-0" fromLane="2" toLane="2" via=":1_7_2" tl="1" linkIndex="9" dir="s" state="o"/>-->
    <connection from="edge-2-1" to="edge-1-4" fromLane="2" toLane="2" via=":1_10_0" tl="1" linkIndex="10" dir="l" state="o"/>
    <!--<connection from="edge-2-1" to="edge-1-2" fromLane="2" toLane="2" via=":1_11_0" tl="1" linkIndex="11" dir="t" state="o"/>-->
    <connection from="edge-2-5" to="edge-5-4" fromLane="0" toLane="0" via=":5_0_0" tl="5" linkIndex="0" dir="r" state="o"/>
    <connection from="edge-2-5" to="edge-5-8" fromLane="0" toLane="0" via=":5_1_0" tl="5" linkIndex="1" dir="s" state="o"/>
    <connection from="edge-2-5" to="edge-5-8" fromLane="1" toLane="1" via=":5_1_1" tl="5" linkIndex="2" dir="s" state="o"/>
    <!--<connection from="edge-2-5" to="edge-5-8" fromLane="2" toLane="2" via=":5_1_2" tl="5" linkIndex="3" dir="s" state="o"/>-->
    <connection from="edge-2-5" to="edge-5-right1" fromLane="2" toLane="2" via=":5_4_0" tl="5" linkIndex="4" dir="l" state="o"/>
    <!--<connection from="edge-2-5" to="edge-5-2" fromLane="2" toLane="2" via=":5_5_0" tl="5" linkIndex="5" dir="t" state="o"/>-->
    <!--<connection from="edge-2-right0" to="edge-right0-2" fromLane="2" toLane="2" via=":right0_0_0" dir="t" state="M"/>-->
    <!--<connection from="edge-2-top2" to="edge-top2-2" fromLane="2" toLane="2" via=":top2_0_0" dir="t" state="M"/>-->
    <connection from="edge-3-0" to="edge-0-1" fromLane="0" toLane="0" via=":0_12_0" tl="0" linkIndex="12" dir="r" state="o"/>
    <connection from="edge-3-0" to="edge-0-top0" fromLane="0" toLane="0" via=":0_13_0" tl="0" linkIndex="13" dir="s" state="o"/>
    <connection from="edge-3-0" to="edge-0-top0" fromLane="1" toLane="1" via=":0_13_1" tl="0" linkIndex="14" dir="s" state="o"/>
    <!--<connection from="edge-3-0" to="edge-0-top0" fromLane="2" toLane="2" via=":0_13_2" tl="0" linkIndex="15" dir="s" state="o"/>-->
    <connection from="edge-3-0" to="edge-0-left0" fromLane="2" toLane="2" via=":0_16_0" tl="0" linkIndex="16" dir="l" state="o"/>
    <!--<connection from="edge-3-0" to="edge-0-3" fromLane="2" toLane="2" via=":0_17_0" tl="0" linkIndex="17" dir="t" state="o"/>-->
    <connection from="edge-3-4" to="edge-4-7" fromLane="0" toLane="0" via=":4_18_0" tl="4" linkIndex="18" dir="r" state="o"/>
    <connection from="edge-3-4" to="edge-4-5" fromLane="0" toLane="0" via=":4_19_0" tl="4" linkIndex="19" dir="s" state="o"/>
    <connection from="edge-3-4" to="edge-4-5" fromLane="1" toLane="1" via=":4_19_1" tl="4" linkIndex="20" dir="s" state="o"/>
    <!--<connection from="edge-3-4" to="edge-4-5" fromLane="2" toLane="2" via=":4_19_2" tl="4" linkIndex="21" dir="s" state="o"/>-->
    <connection from="edge-3-4" to="edge-4-1" fromLane="2" toLane="2" via=":4_22_0" tl="4" linkIndex="22" dir="l" state="o"/>
    <!--<connection from="edge-3-4" to="edge-4-3" fromLane="2" toLane="2" via=":4_23_0" tl="4" linkIndex="23" dir="t" state="o"/>-->
    <connection from="edge-3-6" to="edge-6-left2" fromLane="0" toLane="0" via=":6_0_0" tl="6" linkIndex="0" dir="r" state="O"/>
    <connection from="edge-3-6" to="edge-6-bot0" fromLane="0" toLane="0" via=":6_1_0" tl="6" linkIndex="1" dir="s" state="o"/>
    <connection from="edge-3-6" to="edge-6-bot0" fromLane="1" toLane="1" via=":6_1_1" tl="6" linkIndex="2" dir="s" state="o"/>
    <!--<connection from="edge-3-6" to="edge-6-bot0" fromLane="2" toLane="2" via=":6_1_2" tl="6" linkIndex="3" dir="s" state="o"/>-->
    <connection from="edge-3-6" to="edge-6-7" fromLane="2" toLane="2" via=":6_4_0" tl="6" linkIndex="4" dir="l" state="o"/>
    <!--<connection from="edge-3-6" to="edge-6-3" fromLane="2" toLane="2" via=":6_5_0" tl="6" linkIndex="5" dir="t" state="o"/>-->
    <!--<connection from="edge-3-left1" to="edge-left1-3" fromLane="2" toLane="2" via=":left1_0_0" dir="t" state="M"/>-->
    <connection from="edge-4-1" to="edge-1-2" fromLane="0" toLane="0" via=":1_12_0" tl="1" linkIndex="12" dir="r" state="O"/>
    <connection from="edge-4-1" to="edge-1-top1" fromLane="0" toLane="0" via=":1_13_0" tl="1" linkIndex="13" dir="s" state="O"/>
    <connection from="edge-4-1" to="edge-1-top1" fromLane="1" toLane="1" via=":1_13_1" tl="1" linkIndex="14" dir="s" state="O"/>
    <!--<connection from="edge-4-1" to="edge-1-top1" fromLane="2" toLane="2" via=":1_13_2" tl="1" linkIndex="15" dir="s" state="O"/>-->
    <connection from="edge-4-1" to="edge-1-0" fromLane="2" toLane="2" via=":1_16_0" tl="1" linkIndex="16" dir="l" state="o"/>
    <!--<connection from="edge-4-1" to="edge-1-4" fromLane="2" toLane="2" via=":1_17_0" tl="1" linkIndex="17" dir="t" state="o"/>-->
    <connection from="edge-4-3" to="edge-3-0" fromLane="0" toLane="0" via=":3_6_0" tl="3" linkIndex="6" dir="r" state="O"/>
    <connection from="edge-4-3" to="edge-3-left1" fromLane="0" toLane="0" via=":3_7_0" tl="3" linkIndex="7" dir="s" state="O"/>
    <connection from="edge-4-3" to="edge-3-left1" fromLane="1" toLane="1" via=":3_7_1" tl="3" linkIndex="8" dir="s" state="O"/>
    <!--<connection from="edge-4-3" to="edge-3-left1" fromLane="2" toLane="2" via=":3_7_2" tl="3" linkIndex="9" dir="s" state="O"/>-->
    <connection from="edge-4-3" to="edge-3-6" fromLane="2" toLane="2" via=":3_10_0" tl="3" linkIndex="10" dir="l" state="o"/>
    <!--<connection from="edge-4-3" to="edge-3-4" fromLane="2" toLane="2" via=":3_11_0" tl="3" linkIndex="11" dir="t" state="o"/>-->
    <connection from="edge-4-5" to="edge-5-8" fromLane="0" toLane="0" via=":5_18_0" tl="5" linkIndex="18" dir="r" state="O"/>
    <connection from="edge-4-5" to="edge-5-right1" fromLane="0" toLane="0" via=":5_19_0" tl="5" linkIndex="19" dir="s" state="O"/>
    <connection from="edge-4-5" to="edge-5-right1" fromLane="1" toLane="1" via=":5_19_1" tl="5" linkIndex="20" dir="s" state="O"/>
    <!--<connection from="edge-4-5" to="edge-5-right1" fromLane="2" toLane="2" via=":5_19_2" tl="5" linkIndex="21" dir="s" state="O"/>-->
    <connection from="edge-4-5" to="edge-5-2" fromLane="2" toLane="2" via=":5_22_0" tl="5" linkIndex="22" dir="l" state="o"/>
    <!--<connection from="edge-4-5" to="edge-5-4" fromLane="2" toLane="2" via=":5_23_0" tl="5" linkIndex="23" dir="t" state="o"/>-->
    <connection from="edge-4-7" to="edge-7-6" fromLane="0" toLane="0" via=":7_0_0" tl="7" linkIndex="0" dir="r" state="O"/>
    <connection from="edge-4-7" to="edge-7-bot1" fromLane="0" toLane="0" via=":7_1_0" tl="7" linkIndex="1" dir="s" state="O"/>
    <connection from="edge-4-7" to="edge-7-bot1" fromLane="1" toLane="1" via=":7_1_1" tl="7" linkIndex="2" dir="s" state="O"/>
    <!--<connection from="edge-4-7" to="edge-7-bot1" fromLane="2" toLane="2" via=":7_1_2" tl="7" linkIndex="3" dir="s" state="O"/>-->
    <connection from="edge-4-7" to="edge-7-8" fromLane="2" toLane="2" via=":7_4_0" tl="7" linkIndex="4" dir="l" state="o"/>
    <!--<connection from="edge-4-7" to="edge-7-4" fromLane="2" toLane="2" via=":7_5_0" tl="7" linkIndex="5" dir="t" state="o"/>-->
    <connection from="edge-5-2" to="edge-2-right0" fromLane="0" toLane="0" via=":2_12_0" tl="2" linkIndex="12" dir="r" state="O"/>
    <connection from="edge-5-2" to="edge-2-top2" fromLane="0" toLane="0" via=":2_13_0" tl="2" linkIndex="13" dir="s" state="o"/>
    <connection from="edge-5-2" to="edge-2-top2" fromLane="1" toLane="1" via=":2_13_1" tl="2" linkIndex="14" dir="s" state="o"/>
    <!--<connection from="edge-5-2" to="edge-2-top2" fromLane="2" toLane="2" via=":2_13_2" tl="2" linkIndex="15" dir="s" state="o"/>-->
    <connection from="edge-5-2" to="edge-2-1" fromLane="2" toLane="2" via=":2_16_0" tl="2" linkIndex="16" dir="l" state="o"/>
    <!--<connection from="edge-5-2" to="edge-2-5" fromLane="2" toLane="2" via=":2_17_0" tl="2" linkIndex="17" dir="t" state="o"/>-->
    <connection from="edge-5-4" to="edge-4-1" fromLane="0" toLane="0" via=":4_6_0" tl="4" linkIndex="6" dir="r" state="o"/>
    <connection from="edge-5-4" to="edge-4-3" fromLane="0" toLane="0" via=":4_7_0" tl="4" linkIndex="7" dir="s" state="o"/>
    <connection from="edge-5-4" to="edge-4-3" fromLane="1" toLane="1" via=":4_7_1" tl="4" linkIndex="8" dir="s" state="o"/>
    <!--<connection from="edge-5-4" to="edge-4-3" fromLane="2" toLane="2" via=":4_7_2" tl="4" linkIndex="9" dir="s" state="o"/>-->
    <connection from="edge-5-4" to="edge-4-7" fromLane="2" toLane="2" via=":4_10_0" tl="4" linkIndex="10" dir="l" state="o"/>
    <!--<connection from="edge-5-4" to="edge-4-5" fromLane="2" toLane="2" via=":4_11_0" tl="4" linkIndex="11" dir="t" state="o"/>-->
    <connection from="edge-5-8" to="edge-8-7" fromLane="0" toLane="0" via=":8_0_0" tl="8" linkIndex="0" dir="r" state="o"/>
    <connection from="edge-5-8" to="edge-8-bot2" fromLane="0" toLane="0" via=":8_1_0" tl="8" linkIndex="1" dir="s" state="o"/>
    <connection from="edge-5-8" to="edge-8-bot2" fromLane="1" toLane="1" via=":8_1_1" tl="8" linkIndex="2" dir="s" state="o"/>
    <!--<connection from="edge-5-8" to="edge-8-bot2" fromLane="2" toLane="2" via=":8_1_2" tl="8" linkIndex="3" dir="s" state="o"/>-->
    <connection from="edge-5-8" to="edge-8-right2" fromLane="2" toLane="2" via=":8_4_0" tl="8" linkIndex="4" dir="l" state="o"/>
    <!--<connection from="edge-5-8" to="edge-8-5" fromLane="2" toLane="2" via=":8_5_0" tl="8" linkIndex="5" dir="t" state="o"/>-->
    <!--<connection from="edge-5-right1" to="edge-right1-5" fromLane="2" toLane="2" via=":right1_0_0" dir="t" state="M"/>-->
    <connection from="edge-6-3" to="edge-3-4" fromLane="0" toLane="0" via=":3_12_0" tl="3" linkIndex="12" dir="r" state="o"/>
    <connection from="edge-6-3" to="edge-3-0" fromLane="0" toLane="0" via=":3_13_0" tl="3" linkIndex="13" dir="s" state="o"/>
    <connection from="edge-6-3" to="edge-3-0" fromLane="1" toLane="1" via=":3_13_1" tl="3" linkIndex="14" dir="s" state="o"/>
    <!--<connection from="edge-6-3" to="edge-3-0" fromLane="2" toLane="2" via=":3_13_2" tl="3" linkIndex="15" dir="s" state="o"/>-->
    <connection from="edge-6-3" to="edge-3-left1" fromLane="2" toLane="2" via=":3_16_0" tl="3" linkIndex="16" dir="l" state="o"/>
    <!--<connection from="edge-6-3" to="edge-3-6" fromLane="2" toLane="2" via=":3_17_0" tl="3" linkIndex="17" dir="t" state="o"/>-->
    <connection from="edge-6-7" to="edge-7-bot1" fromLane="0" toLane="0" via=":7_18_0" tl="7" linkIndex="18" dir="r" state="o"/>
    <connection from="edge-6-7" to="edge-7-8" fromLane="0" toLane="0" via=":7_19_0" tl="7" linkIndex="19" dir="s" state="o"/>
    <connection from="edge-6-7" to="edge-7-8" fromLane="1" toLane="1" via=":7_19_1" tl="7" linkIndex="20" dir="s" state="o"/>
    <!--<connection from="edge-6-7" to="edge-7-8" fromLane="2" toLane="2" via=":7_19_2" tl="7" linkIndex="21" dir="s" state="o"/>-->
    <connection from="edge-6-7" to="edge-7-4" fromLane="2" toLane="2" via=":7_22_0" tl="7" linkIndex="22" dir="l" state="o"/>
    <!--<connection from="edge-6-7" to="edge-7-6" fromLane="2" toLane="2" via=":7_23_0" tl="7" linkIndex="23" dir="t" state="o"/>-->
    <!--<connection from="edge-6-bot0" to="edge-bot0-6" fromLane="2" toLane="2" via=":bot0_0_0" dir="t" state="M"/>-->
    <!--<connection from="edge-6-left2" to="edge-left2-6" fromLane="2" toLane="2" via=":left2_0_0" dir="t" state="M"/>-->
    <connection from="edge-7-4" to="edge-4-5" fromLane="0" toLane="0" via=":4_12_0" tl="4" linkIndex="12" dir="r" state="O"/>
    <connection from="edge-7-4" to="edge-4-1" fromLane="0" toLane="0" via=":4_13_0" tl="4" linkIndex="13" dir="s" state="O"/>
    <connection from="edge-7-4" to="edge-4-1" fromLane="1" toLane="1" via=":4_13_1" tl="4" linkIndex="14" dir="s" state="O"/>
    <!--<connection from="edge-7-4" to="edge-4-1" fromLane="2" toLane="2" via=":4_13_2" tl="4" linkIndex="15" dir="s" state="O"/>-->
    <connection from="edge-7-4" to="edge-4-3" fromLane="2" toLane="2" via=":4_16_0" tl="4" linkIndex="16" dir="l" state="o"/>
    <!--<connection from="edge-7-4" to="edge-4-7" fromLane="2" toLane="2" via=":4_17_0" tl="4" linkIndex="17" dir="t" state="o"/>-->
    <connection from="edge-7-6" to="edge-6-3" fromLane="0" toLane="0" via=":6_6_0" tl="6" linkIndex="6" dir="r" state="o"/>
    <connection from="edge-7-6" to="edge-6-left2" fromLane="0" toLane="0" via=":6_7_0" tl="6" linkIndex="7" dir="s" state="o"/>
    <connection from="edge-7-6" to="edge-6-left2" fromLane="1" toLane="1" via=":6_7_1" tl="6" linkIndex="8" dir="s" state="o"/>
    <!--<connection from="edge-7-6" to="edge-6-left2" fromLane="2" toLane="2" via=":6_7_2" tl="6" linkIndex="9" dir="s" state="o"/>-->
    <connection from="edge-7-6" to="edge-6-bot0" fromLane="2" toLane="2" via=":6_10_0" tl="6" linkIndex="10" dir="l" state="o"/>
    <!--<connection from="edge-7-6" to="edge-6-7" fromLane="2" toLane="2" via=":6_11_0" tl="6" linkIndex="11" dir="t" state="o"/>-->
    <connection from="edge-7-8" to="edge-8-bot2" fromLane="0" toLane="0" via=":8_18_0" tl="8" linkIndex="18" dir="r" state="O"/>
    <connection from="edge-7-8" to="edge-8-right2" fromLane="0" toLane="0" via=":8_19_0" tl="8" linkIndex="19" dir="s" state="o"/>
    <connection from="edge-7-8" to="edge-8-right2" fromLane="1" toLane="1" via=":8_19_1" tl="8" linkIndex="20" dir="s" state="o"/>
    <!--<connection from="edge-7-8" to="edge-8-right2" fromLane="2" toLane="2" via=":8_19_2" tl="8" linkIndex="21" dir="s" state="o"/>-->
    <connection from="edge-7-8" to="edge-8-5" fromLane="2" toLane="2" via=":8_22_0" tl="8" linkIndex="22" dir="l" state="o"/>
    <!--<connection from="edge-7-8" to="edge-8-7" fromLane="2" toLane="2" via=":8_23_0" tl="8" linkIndex="23" dir="t" state="o"/>-->
    <!--<connection from="edge-7-bot1" to="edge-bot1-7" fromLane="2" toLane="2" via=":bot1_0_0" dir="t" state="M"/>-->
    <connection from="edge-8-5" to="edge-5-right1" fromLane="0" toLane="0" via=":5_12_0" tl="5" linkIndex="12" dir="r" state="o"/>
    <connection from="edge-8-5" to="edge-5-2" fromLane="0" toLane="0" via=":5_13_0" tl="5" linkIndex="13" dir="s" state="o"/>
    <connection from="edge-8-5" to="edge-5-2" fromLane="1" toLane="1" via=":5_13_1" tl="5" linkIndex="14" dir="s" state="o"/>
    <!--<connection from="edge-8-5" to="edge-5-2" fromLane="2" toLane="2" via=":5_13_2" tl="5" linkIndex="15" dir="s" state="o"/>-->
    <connection from="edge-8-5" to="edge-5-4" fromLane="2" toLane="2" via=":5_16_0" tl="5" linkIndex="16" dir="l" state="o"/>
    <!--<connection from="edge-8-5" to="edge-5-8" fromLane="2" toLane="2" via=":5_17_0" tl="5" linkIndex="17" dir="t" state="o"/>-->
    <connection from="edge-8-7" to="edge-7-4" fromLane="0" toLane="0" via=":7_6_0" tl="7" linkIndex="6" dir="r" state="o"/>
    <connection from="edge-8-7" to="edge-7-6" fromLane="0" toLane="0" via=":7_7_0" tl="7" linkIndex="7" dir="s" state="o"/>
    <connection from="edge-8-7" to="edge-7-6" fromLane="1" toLane="1" via=":7_7_1" tl="7" linkIndex="8" dir="s" state="o"/>
    <!--<connection from="edge-8-7" to="edge-7-6" fromLane="2" toLane="2" via=":7_7_2" tl="7" linkIndex="9" dir="s" state="o"/>-->
    <connection from="edge-8-7" to="edge-7-bot1" fromLane="2" toLane="2" via=":7_10_0" tl="7" linkIndex="10" dir="l" state="o"/>
    <!--<connection from="edge-8-7" to="edge-7-8" fromLane="2" toLane="2" via=":7_11_0" tl="7" linkIndex="11" dir="t" state="o"/>-->
    <!--<connection from="edge-8-bot2" to="edge-bot2-8" fromLane="2" toLane="2" via=":bot2_0_0" dir="t" state="M"/>-->
    <!--<connection from="edge-8-right2" to="edge-right2-8" fromLane="2" toLane="2" via=":right2_0_0" dir="t" state="M"/>-->
    <connection from="edge-bot0-6" to="edge-6-7" fromLane="0" toLane="0" via=":6_12_0" tl="6" linkIndex="12" dir="r" state="O"/>
    <connection from="edge-bot0-6" to="edge-6-3" fromLane="0" toLane="0" via=":6_13_0" tl="6" linkIndex="13" dir="s" state="O"/>
    <connection from="edge-bot0-6" to="edge-6-3" fromLane="1" toLane="1" via=":6_13_1" tl="6" linkIndex="14" dir="s" state="O"/>
    <!--<connection from="edge-bot0-6" to="edge-6-3" fromLane="2" toLane="2" via=":6_13_2" tl="6" linkIndex="15" dir="s" state="O"/>-->
    <connection from="edge-bot0-6" to="edge-6-left2" fromLane="2" toLane="2" via=":6_16_0" tl="6" linkIndex="16" dir="l" state="O"/>
    <!--<connection from="edge-bot0-6" to="edge-6-bot0" fromLane="2" toLane="2" via=":6_17_0" tl="6" linkIndex="17" dir="t" state="o"/>-->
    <connection from="edge-bot1-7" to="edge-7-8" fromLane="0" toLane="0" via=":7_12_0" tl="7" linkIndex="12" dir="r" state="O"/>
    <connection from="edge-bot1-7" to="edge-7-4" fromLane="0" toLane="0" via=":7_13_0" tl="7" linkIndex="13" dir="s" state="O"/>
    <connection from="edge-bot1-7" to="edge-7-4" fromLane="1" toLane="1" via=":7_13_1" tl="7" linkIndex="14" dir="s" state="O"/>
    <!--<connection from="edge-bot1-7" to="edge-7-4" fromLane="2" toLane="2" via=":7_13_2" tl="7" linkIndex="15" dir="s" state="O"/>-->
    <connection from="edge-bot1-7" to="edge-7-6" fromLane="2" toLane="2" via=":7_16_0" tl="7" linkIndex="16" dir="l" state="o"/>
    <!--<connection from="edge-bot1-7" to="edge-7-bot1" fromLane="2" toLane="2" via=":7_17_0" tl="7" linkIndex="17" dir="t" state="o"/>-->
    <connection from="edge-bot2-8" to="edge-8-right2" fromLane="0" toLane="0" via=":8_12_0" tl="8" linkIndex="12" dir="r" state="O"/>
    <connection from="edge-bot2-8" to="edge-8-5" fromLane="0" toLane="0" via=":8_13_0" tl="8" linkIndex="13" dir="s" state="o"/>
    <connection from="edge-bot2-8" to="edge-8-5" fromLane="1" toLane="1" via=":8_13_1" tl="8" linkIndex="14" dir="s" state="o"/>
    <!--<connection from="edge-bot2-8" to="edge-8-5" fromLane="2" toLane="2" via=":8_13_2" tl="8" linkIndex="15" dir="s" state="o"/>-->
    <connection from="edge-bot2-8" to="edge-8-7" fromLane="2" toLane="2" via=":8_16_0" tl="8" linkIndex="16" dir="l" state="o"/>
    <!--<connection from="edge-bot2-8" to="edge-8-bot2" fromLane="2" toLane="2" via=":8_17_0" tl="8" linkIndex="17" dir="t" state="o"/>-->
    <connection from="edge-left0-0" to="edge-0-3" fromLane="0" toLane="0" via=":0_18_0" tl="0" linkIndex="18" dir="r" state="O"/>
    <connection from="edge-left0-0" to="edge-0-1" fromLane="0" toLane="0" via=":0_19_0" tl="0" linkIndex="19" dir="s" state="O"/>
    <connection from="edge-left0-0" to="edge-0-1" fromLane="1" toLane="1" via=":0_19_1" tl="0" linkIndex="20" dir="s" state="O"/>
    <!--<connection from="edge-left0-0" to="edge-0-1" fromLane="2" toLane="2" via=":0_19_2" tl="0" linkIndex="21" dir="s" state="O"/>-->
    <connection from="edge-left0-0" to="edge-0-top0" fromLane="2" toLane="2" via=":0_22_0" tl="0" linkIndex="22" dir="l" state="O"/>
    <!--<connection from="edge-left0-0" to="edge-0-left0" fromLane="2" toLane="2" via=":0_23_0" tl="0" linkIndex="23" dir="t" state="o"/>-->
    <connection from="edge-left1-3" to="edge-3-6" fromLane="0" toLane="0" via=":3_18_0" tl="3" linkIndex="18" dir="r" state="O"/>
    <connection from="edge-left1-3" to="edge-3-4" fromLane="0" toLane="0" via=":3_19_0" tl="3" linkIndex="19" dir="s" state="O"/>
    <connection from="edge-left1-3" to="edge-3-4" fromLane="1" toLane="1" via=":3_19_1" tl="3" linkIndex="20" dir="s" state="O"/>
    <!--<connection from="edge-left1-3" to="edge-3-4" fromLane="2" toLane="2" via=":3_19_2" tl="3" linkIndex="21" dir="s" state="O"/>-->
    <connection from="edge-left1-3" to="edge-3-0" fromLane="2" toLane="2" via=":3_22_0" tl="3" linkIndex="22" dir="l" state="o"/>
    <!--<connection from="edge-left1-3" to="edge-3-left1" fromLane="2" toLane="2" via=":3_23_0" tl="3" linkIndex="23" dir="t" state="o"/>-->
    <connection from="edge-left2-6" to="edge-6-bot0" fromLane="0" toLane="0" via=":6_18_0" tl="6" linkIndex="18" dir="r" state="O"/>
    <connection from="edge-left2-6" to="edge-6-7" fromLane="0" toLane="0" via=":6_19_0" tl="6" linkIndex="19" dir="s" state="o"/>
    <connection from="edge-left2-6" to="edge-6-7" fromLane="1" toLane="1" via=":6_19_1" tl="6" linkIndex="20" dir="s" state="o"/>
    <!--<connection from="edge-left2-6" to="edge-6-7" fromLane="2" toLane="2" via=":6_19_2" tl="6" linkIndex="21" dir="s" state="o"/>-->
    <connection from="edge-left2-6" to="edge-6-3" fromLane="2" toLane="2" via=":6_22_0" tl="6" linkIndex="22" dir="l" state="o"/>
    <!--<connection from="edge-left2-6" to="edge-6-left2" fromLane="2" toLane="2" via=":6_23_0" tl="6" linkIndex="23" dir="t" state="o"/>-->
    <connection from="edge-right0-2" to="edge-2-top2" fromLane="0" toLane="0" via=":2_6_0" tl="2" linkIndex="6" dir="r" state="O"/>
    <connection from="edge-right0-2" to="edge-2-1" fromLane="0" toLane="0" via=":2_7_0" tl="2" linkIndex="7" dir="s" state="o"/>
    <connection from="edge-right0-2" to="edge-2-1" fromLane="1" toLane="1" via=":2_7_1" tl="2" linkIndex="8" dir="s" state="o"/>
    <!--<connection from="edge-right0-2" to="edge-2-1" fromLane="2" toLane="2" via=":2_7_2" tl="2" linkIndex="9" dir="s" state="o"/>-->
    <connection from="edge-right0-2" to="edge-2-5" fromLane="2" toLane="2" via=":2_10_0" tl="2" linkIndex="10" dir="l" state="o"/>
    <!--<connection from="edge-right0-2" to="edge-2-right0" fromLane="2" toLane="2" via=":2_11_0" tl="2" linkIndex="11" dir="t" state="o"/>-->
    <connection from="edge-right1-5" to="edge-5-2" fromLane="0" toLane="0" via=":5_6_0" tl="5" linkIndex="6" dir="r" state="O"/>
    <connection from="edge-right1-5" to="edge-5-4" fromLane="0" toLane="0" via=":5_7_0" tl="5" linkIndex="7" dir="s" state="O"/>
    <connection from="edge-right1-5" to="edge-5-4" fromLane="1" toLane="1" via=":5_7_1" tl="5" linkIndex="8" dir="s" state="O"/>
    <!--<connection from="edge-right1-5" to="edge-5-4" fromLane="2" toLane="2" via=":5_7_2" tl="5" linkIndex="9" dir="s" state="O"/>-->
    <connection from="edge-right1-5" to="edge-5-8" fromLane="2" toLane="2" via=":5_10_0" tl="5" linkIndex="10" dir="l" state="o"/>
    <!--<connection from="edge-right1-5" to="edge-5-right1" fromLane="2" toLane="2" via=":5_11_0" tl="5" linkIndex="11" dir="t" state="o"/>-->
    <connection from="edge-right2-8" to="edge-8-5" fromLane="0" toLane="0" via=":8_6_0" tl="8" linkIndex="6" dir="r" state="O"/>
    <connection from="edge-right2-8" to="edge-8-7" fromLane="0" toLane="0" via=":8_7_0" tl="8" linkIndex="7" dir="s" state="O"/>
    <connection from="edge-right2-8" to="edge-8-7" fromLane="1" toLane="1" via=":8_7_1" tl="8" linkIndex="8" dir="s" state="O"/>
    <!--<connection from="edge-right2-8" to="edge-8-7" fromLane="2" toLane="2" via=":8_7_2" tl="8" linkIndex="9" dir="s" state="O"/>-->
    <connection from="edge-right2-8" to="edge-8-bot2" fromLane="2" toLane="2" via=":8_10_0" tl="8" linkIndex="10" dir="l" state="O"/>
    <!--<connection from="edge-right2-8" to="edge-8-right2" fromLane="2" toLane="2" via=":8_11_0" tl="8" linkIndex="11" dir="t" state="o"/>-->
    <connection from="edge-top0-0" to="edge-0-left0" fromLane="0" toLane="0" via=":0_0_0" tl="0" linkIndex="0" dir="r" state="O"/>
    <connection from="edge-top0-0" to="edge-0-3" fromLane="0" toLane="0" via=":0_1_0" tl="0" linkIndex="1" dir="s" state="o"/>
    <connection from="edge-top0-0" to="edge-0-3" fromLane="1" toLane="1" via=":0_1_1" tl="0" linkIndex="2" dir="s" state="o"/>
    <!--<connection from="edge-top0-0" to="edge-0-3" fromLane="2" toLane="2" via=":0_1_2" tl="0" linkIndex="3" dir="s" state="o"/>-->
    <connection from="edge-top0-0" to="edge-0-1" fromLane="2" toLane="2" via=":0_4_0" tl="0" linkIndex="4" dir="l" state="o"/>
    <!--<connection from="edge-top0-0" to="edge-0-top0" fromLane="2" toLane="2" via=":0_5_0" tl="0" linkIndex="5" dir="t" state="o"/>-->
    <connection from="edge-top1-1" to="edge-1-0" fromLane="0" toLane="0" via=":1_0_0" tl="1" linkIndex="0" dir="r" state="O"/>
    <connection from="edge-top1-1" to="edge-1-4" fromLane="0" toLane="0" via=":1_1_0" tl="1" linkIndex="1" dir="s" state="O"/>
    <connection from="edge-top1-1" to="edge-1-4" fromLane="1" toLane="1" via=":1_1_1" tl="1" linkIndex="2" dir="s" state="O"/>
    <!--<connection from="edge-top1-1" to="edge-1-4" fromLane="2" toLane="2" via=":1_1_2" tl="1" linkIndex="3" dir="s" state="O"/>-->
    <connection from="edge-top1-1" to="edge-1-2" fromLane="2" toLane="2" via=":1_4_0" tl="1" linkIndex="4" dir="l" state="o"/>
    <!--<connection from="edge-top1-1" to="edge-1-top1" fromLane="2" toLane="2" via=":1_5_0" tl="1" linkIndex="5" dir="t" state="o"/>-->
    <connection from="edge-top2-2" to="edge-2-1" fromLane="0" toLane="0" via=":2_0_0" tl="2" linkIndex="0" dir="r" state="O"/>
    <connection from="edge-top2-2" to="edge-2-5" fromLane="0" toLane="0" via=":2_1_0" tl="2" linkIndex="1" dir="s" state="O"/>
    <connection from="edge-top2-2" to="edge-2-5" fromLane="1" toLane="1" via=":2_1_1" tl="2" linkIndex="2" dir="s" state="O"/>
    <!--<connection from="edge-top2-2" to="edge-2-5" fromLane="2" toLane="2" via=":2_1_2" tl="2" linkIndex="3" dir="s" state="O"/>-->
    <connection from="edge-top2-2" to="edge-2-right0" fromLane="2" toLane="2" via=":2_4_0" tl="2" linkIndex="4" dir="l" state="O"/>
</connections>